FIDVR/IEEE_118_final_conversion_out.txt
ANDES 1.10.0
Copyright (C) 2015-2026 Hantao Cui

ANDES comes with ABSOLUTELY NO WARRANTY
Case file: /home/teng/benchmark_118_10_8500_Andes_OpenDSS/IEEE_118_final_conversion.xlsx
Report time: 04/16/2026 12:21:06 PM

Power flow converged in 3 iterations.
Flat-start: No

Statistics:
Buses                            118
Generators                        54
Committed Gens                    34
Loads                             91
Shunts                            14
Lines                            179
Transformers      
Areas                              1

EXTENDED SUMMARY:
                              P (pu)            Q (pu)

Generation                    37.996            7.8487
Load                           36.68             14.38

BUS DATA:
                            Bus Name            Vm(pu)          Va(rad.)

1                           RIVERSDE           0.95701           0.19152
2                            POKAGON           0.97216           0.20122
3                           HICKRYCK           0.96882           0.20719
4                           NWCARLSL             0.998           0.27242
5                              OLIVE            1.0016           0.28028
6                           KANKAKEE            0.9854            0.2335
7                           JACKSNRD           0.98647           0.22534
8                              OLIVE             1.015           0.36799
9                            BEQUINE            1.0429           0.49459
10                             BREED              1.05           0.62691
11                          SOUTHBND           0.98491           0.22754
12                          TWINBRCH              0.99           0.21842
13                           CONCORD            0.9675           0.20365
14                          GOSHENJT           0.98283            0.2061
15                           FTWAYNE           0.96715           0.20146
16                             N_ E_           0.98313           0.21332
17                          SORENSON            0.9927           0.24532
18                          MCKINLEY           0.96345           0.20817
19                           LINCOLN           0.96006           0.19837
20                             ADAMS           0.95567           0.21349
21                               JAY           0.95695           0.24109
22                          RANDOLPH           0.96881           0.28552
23                          COLLCRNR            1.0002           0.37101
24                           TRENTON             0.992           0.36879
25                          TANNRSCK              1.05           0.49231
26                          TANNRSCK             1.015            0.5235
27                           MADISON             0.968           0.27287
28                            MULLIN           0.96157           0.24278
29                             GRANT           0.96322           0.22547
30                          SORENSON           0.98487           0.33305
31                           DEERCRK             0.967           0.22752
32                          DELAWARE           0.96704           0.26225
33                          HAVILAND            0.9709           0.19032
34                          ROCKHILL           0.98827           0.20121
35                          WESTLIMA           0.98307           0.19381
36                          STERLING            0.9825           0.19386
37                          EASTLIMA           0.99385           0.20942
38                          EASTLIMA           0.96272           0.29885
39                          NWLIBRTY           0.97116           0.15139
40                          WEST END              0.97           0.13305
41                          S_TIFFIN           0.96683           0.12539
42                            HOWARD             0.985           0.15358
43                          S_KENTON           0.98019           0.20113
44                          WMVERNON           0.98566           0.24549
45                          N_NEWARK           0.98693           0.27781
46                          W_LANCST             1.005           0.32697
47                          CROOKSVL            1.0171           0.36564
48                          ZANESVLL            1.0206           0.35246
49                             PHILO             1.025           0.37005
50                          WCAMBRDG            1.0015           0.33592
51                          NEWCMRST            0.9676           0.29203
52                          SCOSHOCT           0.95747           0.27584
53                           WOOSTER           0.94628           0.25999
54                            TORREY             0.955           0.27674
55                          WAGENHLS           0.95247           0.27161
56                          SUNNYSDE           0.95537           0.27556
57                          WNWPHIL1           0.97165           0.29448
58                          WNWPHIL2           0.96006           0.27987
59                              TIDD             0.985           0.33499
60                          SWKAMMER           0.99309           0.40325
61                          W_KAMMER             0.995           0.41887
62                           NATRIUM           0.99772           0.40865
63                              TIDD           0.96857            0.3956
64                            KAMMER           0.98363           0.42732
65                          MUSKNGUM             1.005           0.48341
66                          MUSKNGUM              1.05           0.48176
67                          SUMMERFL            1.0195           0.43462
68                             SPORN            1.0033           0.48145
69                             SPORN             1.035            0.5236
70                          PORTSMTH           0.98112           0.39521
71                          NPORTSMT           0.98538            0.3877
72                          HILLSBRO              0.98            0.3684
73                          SARGENTS             0.991           0.38372
74                          BELLEFNT           0.95788           0.37775
75                          STHPOINT            0.9657           0.40029
76                            DARRAH           0.93751           0.38146
77                            TURNER            1.0038           0.46749
78                          CHEMICAL            1.0014           0.46206
79                          CAPITLHL            1.0077           0.46715
80                          CABINCRK              1.04           0.50595
81                           KANAWHA           0.99681           0.49108
82                             LOGAN           0.98871             0.476
83                            SPRIGG           0.98531            0.4966
84                          BETSYLNE            0.9818           0.54039
85                          BEAVERCK           0.98763           0.56724
86                            HAZARD           0.98837           0.54372
87                          PINEVLLE             1.015           0.54847
88                           FREMONT           0.98853           0.62203
89                          CLINCHRV             1.005           0.69298
90                           HOLSTON             0.985           0.58139
91                          HOLSTONT              0.98           0.58177
92                          SALTVLLE           0.99333           0.59021
93                          TAZEWELL           0.98758           0.53789
94                          SWITCHBK            0.9909           0.50045
95                          CALDWELL           0.98116           0.48354
96                          BAILEYSV            0.9928           0.48068
97                           SUNDIAL            1.0114            0.4872
98                           BRADLEY            1.0235           0.47885
99                            HINTON              1.01           0.47252
100                         GLEN LYN             1.017           0.48989
101                            WYTHE           0.99291           0.51719
102                           SMYTHE           0.99187           0.56409
103                          CLAYTOR              1.01            0.4248
104                          HANCOCK           0.97442           0.37908
105                          ROANOKE           0.97078           0.35929
106                         CLOVERDL           0.96496           0.35536
107                          REUSENS             0.952           0.30789
108                           BLAINE           0.97002           0.33914
109                         FRANKLIN           0.97001           0.33153
110                         FIELDALE           0.97377           0.31744
111                         DANRIVER              0.98           0.34636
112                         DANVILLE             0.975           0.26371
113                         DEER CRK             0.993            0.2446
114                         WMEDFORD           0.96245           0.25693
115                          MEDFORD           0.96209           0.25686
116                         KYGERCRK             1.005           0.47386
117                            COREY           0.97382           0.19153
118                         WHUNTNGD           0.94597           0.38343

LINE DATA:
                           Line Name     Fr. Bus (idx)      To Bus (idx)       P From (pu)       Q From (pu)         P To (pu)         Q To (pu)

Line_1                        Line_1                 1                 2          -0.12288          -0.11907           0.12376           0.09834
Line_2                        Line_2                 1                 3          -0.38712          -0.15093           0.38953           0.14882
Line_3                        Line_3                 2                12          -0.32376          -0.18834           0.32648           0.18217
Line_4                        Line_4                 3                 5          -0.68241          -0.13125           0.69473           0.15887
Line_5                        Line_5                 3                12         -0.097119          -0.11757          0.098106          0.081881
Line_6                        Line_6                 4                 5           -1.0336          -0.22086            1.0356           0.22771
Line_7                        Line_7                 4                11           0.64363        3.4951e-05          -0.63493          0.011402
Line_8                        Line_8                 5                 6           0.88256           0.11908          -0.87314         -0.090375
Line_9                        Line_9                 8                 5             3.386            1.2618            -3.386          -0.93351
Line_10                      Line_10                 5                11           0.77308          0.026565          -0.76096        -0.0030001
Line_11                      Line_11                 6                 7           0.35314          -0.12962          -0.35247           0.12729
Line_12                      Line_12                 7                12           0.16247          -0.14729          -0.16205            0.1404
Line_13                      Line_13                 8                 9           -4.4063          -0.89733            4.4525           0.24429
Line_14                      Line_14                 8                30           0.74038           0.29083           -0.7368          -0.76296
Line_15                      Line_15                 9                10           -4.4525          -0.24429               4.5          -0.51042
Line_16                      Line_16                11                12           0.34458          -0.36073          -0.34306           0.36082
Line_17                      Line_17                11                13           0.35131           0.12232          -0.34808           -0.1296
Line_18                      Line_18                12                14           0.18355          0.036724          -0.18276         -0.051814
Line_19                      Line_19                12                16          0.075456          0.052057         -0.075249         -0.072069
Line_20                      Line_20                12               117           0.20153          0.051973              -0.2             -0.08
Line_21                      Line_21                13                15         0.0080832           -0.0304        -0.0080779         -0.028233
Line_22                      Line_22                14                15          0.042763          0.041814         -0.042382         -0.088287
Line_23                      Line_23                15                17           -1.0335          -0.25295            1.0494           0.26273
Line_24                      Line_24                15                19           0.11517           0.13418          -0.11475          -0.14219
Line_25                      Line_25                15                33          0.068831         -0.064715         -0.068538          0.035683
Line_26                      Line_26                16                17          -0.17475         -0.027931           0.17619         -0.011855
Line_27                      Line_27                17                18            0.7993             0.387          -0.78939          -0.35875
Line_28                      Line_28                30                17            2.2996           0.97896           -2.2996          -0.74869
Line_29                      Line_29                17                31           0.14574           0.10033          -0.14402          -0.13299
Line_30                      Line_30                17               113          0.018961         -0.019507         -0.018956          0.011955
Line_31                      Line_31                18                19           0.18939          0.018746          -0.18895         -0.027374
Line_32                      Line_32                19                20          -0.10576          0.045989           0.10616         -0.071458
Line_33                      Line_33                19                34          -0.04054          -0.12643          0.041447          0.069413
Line_34                      Line_34                20                21          -0.28616          0.041458           0.28785         -0.053355
Line_35                      Line_35                21                22          -0.42785         -0.026645           0.43204          0.023252
Line_36                      Line_36                22                23          -0.53204         -0.073252           0.54246          0.082536
Line_37                      Line_37                23                24          0.084059           0.11792         -0.083688          -0.16598
Line_38                      Line_38                23                25           -1.6292          -0.25219            1.6712           0.37711
Line_39                      Line_39                23                32           0.93265          0.021739          -0.90488          -0.03425
Line_40                      Line_40                24                70         -0.062347          -0.02278          0.062357         -0.074541
Line_41                      Line_41                24                72          0.016035          0.032732         -0.015862         -0.079484
Line_42                      Line_42                26                25           0.90625           0.21595          -0.90625          -0.18629
Line_43                      Line_43                25                27             1.435           0.30056            -1.371           -0.1526
Line_44                      Line_44                26                30            2.2337          -0.10945           -2.1941           -0.3714
Line_45                      Line_45                27                28           0.32847        -0.0058663          -0.32627         -0.004393
Line_46                      Line_46                27                32           0.12417         -0.033703          -0.12378          0.016965
Line_47                      Line_47                27               115           0.20841           0.02344          -0.20763         -0.038286
Line_48                      Line_48                28                29           0.15627         -0.065607          -0.15556          0.046358
Line_49                      Line_49                29                31         -0.084437         -0.086358          0.084599          0.079124
Line_50                      Line_50                30                38            0.6313            0.1554          -0.62877          -0.52621
Line_51                      Line_51                31                32          -0.30057          0.084515           0.30375         -0.097494
Line_52                      Line_52                32               113          0.042375          -0.15998         -0.041044           0.11461
Line_53                      Line_53                32               114          0.092538          0.044758         -0.092374          -0.05917
Line_54                      Line_54                33                37          -0.16146          -0.12568           0.16313          0.096055
Line_55                      Line_55                34                36           0.30383            0.1124          -0.30289          -0.11502
Line_56                      Line_56                34                37          -0.94669          -0.32917           0.94932           0.32914
Line_57                      Line_57                34                43          0.011414          0.024091         -0.011324         -0.064663
Line_58                      Line_58                35                36         0.0071151          0.052427        -0.0071083         -0.054984
Line_59                      Line_59                35                37          -0.33712          -0.14243           0.33862           0.13635
Line_60                      Line_60                38                37            2.4369            1.0919           -2.4369          -0.83968
Line_61                      Line_61                37                39           0.54705          0.049063           -0.5372         -0.042596
Line_62                      Line_62                37                40           0.43883         -0.017852          -0.42727          0.010107
Line_63                      Line_63                38                65           -1.8082          -0.56571              1.84         -0.098741
Line_64                      Line_64                39                40            0.2672         -0.067404          -0.26573          0.057595
Line_65                      Line_65                40                41           0.15293          0.012407          -0.15256         -0.022639
Line_66                      Line_66                40                42          -0.11992         -0.063961           0.12087          0.022573
Line_67                      Line_67                41                42          -0.21744         -0.077361           0.21968          0.051965
Line_68                      Line_68                42                49           -1.3006           0.10679            1.3643         0.0069883
Line_69                      Line_69                43                44          -0.16868        -0.0053375           0.17051         -0.045876
Line_70                      Line_70                44                45          -0.33051          0.063029           0.33316         -0.074182
Line_71                      Line_71                45                46          -0.36394         -0.031492           0.36939          0.017029
Line_72                      Line_72                45                49          -0.49921         -0.016924           0.51672           0.01957
Line_73                      Line_73                46                47          -0.31028          -0.01292            0.3139        -0.0072769
Line_74                      Line_74                46                48          -0.14911          -0.05776            0.1505          0.013716
Line_75                      Line_75                47                49          -0.10309          -0.10505           0.10346           0.08954
Line_76                      Line_76                47                69          -0.55081           0.11233           0.57738         -0.099567
Line_77                      Line_77                48                49           -0.3505          0.032537           0.35264         -0.039667
Line_78                      Line_78                49                50           0.51696           0.13425          -0.50964          -0.13288
Line_79                      Line_79                49                51           0.64339           0.20526          -0.62193          -0.17876
Line_80                      Line_80                49                54           0.71864            0.2499          -0.69507          -0.30867
Line_81                      Line_81                49                66           -2.5896          0.069375            2.6471           0.17124
Line_82                      Line_82                49                69          -0.45651           0.10218           0.47804          -0.11921
Line_83                      Line_83                50                57           0.33964          0.092882          -0.33362          -0.10819
Line_84                      Line_84                51                52           0.28003          0.065609          -0.27821         -0.073291
Line_85                      Line_85                51                58           0.17191          0.033154          -0.17105         -0.047362
Line_86                      Line_86                52                53          0.098214          0.023291          -0.09771         -0.058027
Line_87                      Line_87                53                54          -0.13229         -0.051973           0.13285          0.026539
Line_88                      Line_88                54                55          0.070236         0.0083079         -0.070139         -0.026276
Line_89                      Line_89                54                56           0.09455         -0.067645         -0.094511          0.061103
Line_90                      Line_90                54                59          -0.25256         -0.089854            0.2563          0.050597
Line_91                      Line_91                55                56           -0.2689         -0.097174           0.26934          0.095126
Line_92                      Line_92                55                59          -0.29096          -0.09655           0.29564          0.064885
Line_93                      Line_93                56                57          -0.21167          -0.09517           0.21362          0.078193
Line_94                      Line_94                56                58         -0.050926         -0.039201          0.051054          0.017362
Line_95                      Line_95                56                59          -0.75223          -0.20186           0.76622           0.10395
Line_96                      Line_96                59                60          -0.44732          0.040278           0.45397         -0.046643
Line_97                      Line_97                59                61          -0.53133          0.054666           0.54106         -0.048214
Line_98                      Line_98                63                59            1.5595           0.67258           -1.5595           -0.5632
Line_99                      Line_99                60                61           -1.1259          0.081738            1.1293         -0.078664
Line_100                    Line_100                60                62          -0.10807         -0.065095           0.10826          0.051404
Line_101                    Line_101                61                62           0.24272          -0.12853           -0.2421           0.12162
Line_102                    Line_102                64                61           0.31309           0.13567          -0.31309          -0.13254
Line_103                    Line_103                62                66          -0.38239          -0.17067           0.39045           0.14648
Line_104                    Line_104                62                67          -0.25377          -0.14235           0.25586           0.12027
Line_105                    Line_105                63                64           -1.5595          -0.67258            1.5646           0.52558
Line_106                    Line_106                64                65           -1.8777          -0.66124            1.8881           0.40267
Line_107                    Line_107                65                66          0.050265           0.72242         -0.050265          -0.70562
Line_108                    Line_108                65                68           0.13162          -0.22354          -0.13158           -0.4193
Line_109                    Line_109                66                67           0.54271           0.19262          -0.53586          -0.19027
Line_110                    Line_110                68                69           -1.2646            1.1285            1.2646           -1.0362
Line_111                    Line_111                68                81           -0.4451         -0.045912           0.44567          -0.75556
Line_112                    Line_112                68               116            1.8413           -0.6633             -1.84           0.51294
Line_113                    Line_113                69                70            1.0826           0.18386            -1.048          -0.16162
Line_114                    Line_114                69                75             1.102            0.2179            -1.053          -0.19462
Line_115                    Line_115                69                77           0.62153          0.090489          -0.60977          -0.15994
Line_116                    Line_116                70                71           0.16531          -0.16249          -0.16483           0.15593
Line_117                    Line_117                70                74           0.16175           0.10816          -0.16002           -0.1341
Line_118                    Line_118                70                75        -0.0014038          0.090489         0.0019207           -0.1229
Line_119                    Line_119                71                72           0.10464         -0.017026          -0.10414         -0.023855
Line_120                    Line_120                71                73          0.060191          -0.13891             -0.06            0.1284
Line_121                    Line_121                74                75          -0.51998         -0.025798           0.52361          0.028216
Line_122                    Line_122                75                77           -0.3463         -0.092076           0.35434           0.07051
Line_123                    Line_123                75               118           0.40382           0.27138          -0.40009          -0.26996
Line_124                    Line_124                76                77          -0.61029          -0.22928            0.6314           0.26493
Line_125                    Line_125                76               118          -0.06971          -0.13072          0.070091           0.11996
Line_126                    Line_126                77                78           0.45567          0.045704          -0.45488         -0.055821
Line_127                    Line_127                77                80           -1.4087           -0.6492             1.434           0.65389
Line_128                    Line_128                77                82         -0.032946             0.148          0.034036            -0.226
Line_129                    Line_129                78                79          -0.25512          -0.20418           0.25569           0.20021
Line_130                    Line_130                79                80          -0.64569           -0.3171           0.65355           0.33295
Line_131                    Line_131                81                80          -0.44567           0.75556           0.44567          -0.73051
Line_132                    Line_132                80                96           0.18923           0.20781          -0.18625          -0.24359
Line_133                    Line_133                80                97           0.26378           0.25467          -0.26139          -0.26916
Line_134                    Line_134                80                98            0.2888          0.083307          -0.28675          -0.10445
Line_135                    Line_135                80                99           0.19496          0.081811          -0.19284          -0.12959
Line_136                    Line_136                82                83          -0.47359           0.22351           0.47683          -0.24988
Line_137                    Line_137                82                96          -0.10044         -0.071993           0.10065          0.019253
Line_138                    Line_138                83                84          -0.24918           0.13866           0.25465          -0.15206
Line_139                    Line_139                83                85          -0.42765           0.10831           0.43645           -0.1119
Line_140                    Line_140                84                85          -0.36465          0.082064           0.36906         -0.084672
Line_141                    Line_141                85                86           0.17163         -0.066073          -0.17047          0.043195
Line_142                    Line_142                85                88          -0.50377          0.090897           0.50919         -0.090165
Line_143                    Line_143                85                89          -0.71337           0.02175           0.72589          0.022204
Line_144                    Line_144                86                87         -0.039528          -0.14319              0.04             0.102
Line_145                    Line_145                88                89          -0.98919        -0.0098346            1.0031          0.061913
Line_146                    Line_146                89                90            1.6884         -0.099724           -1.6424           0.12606
Line_147                    Line_147                89                92            2.6526          -0.15202           -2.5975           0.32319
Line_148                    Line_148                90                91          0.012411           0.04476         -0.012328         -0.065142
Line_149                    Line_149                91                92         -0.087672         -0.091457          0.088213           0.06142
Line_150                    Line_150                92                93           0.57695          -0.10308          -0.56802           0.11103
Line_151                    Line_151                92                94           0.52233          -0.13866          -0.50834           0.14464
Line_152                    Line_152                92               100           0.31409          -0.16956          -0.30648           0.12621
Line_153                    Line_153                92               102           0.44588         -0.073311          -0.44335          0.070398
Line_154                    Line_154                93                94           0.44802          -0.18103          -0.44275           0.17996
Line_155                    Line_155                94                95           0.40947          0.095441          -0.40708         -0.098373
Line_156                    Line_156                94                96           0.19878         -0.092261          -0.19751          0.073712
Line_157                    Line_157                94               100          0.042855          -0.48778         -0.039017            0.4394
Line_158                    Line_158                95                96         -0.012925          -0.21163          0.013671           0.19965
Line_159                    Line_159                96                97          -0.11056          -0.19902           0.11139           0.17916
Line_160                    Line_160                98               100         -0.053245          0.024451          0.053445         -0.073098
Line_161                    Line_161                99               100          -0.22716         -0.045779           0.22809          0.027801
Line_162                    Line_162               100               101          -0.16708           0.21684           0.16929           -0.2399
Line_163                    Line_163               100               103            1.2139          -0.22064           -1.1906           0.24227
Line_164                    Line_164               100               104           0.56319           0.08957          -0.54876         -0.077946
Line_165                    Line_165               100               106           0.60392          0.078239          -0.58187         -0.055723
Line_166                    Line_166               101               102          -0.38929          0.089899           0.39335           -0.1004
Line_167                    Line_167               103               104            0.3245           0.11712          -0.31882           -0.1379
Line_168                    Line_168               103               105           0.43261          0.093456          -0.42211           -0.1016
Line_169                    Line_169               103               110           0.60345          0.079512           -0.5891         -0.058275
Line_170                    Line_170               104               105           0.48758         -0.034158          -0.48508          0.034329
Line_171                    Line_171               105               106          0.087906          0.074287         -0.087694         -0.086891
Line_172                    Line_172               105               107           0.26778         0.0065108           -0.2637         -0.036056
Line_173                    Line_173               105               108            0.2415         -0.085045          -0.23973          0.072466
Line_174                    Line_174               106               107           0.23956         -0.017386           -0.2363         -0.014694
Line_175                    Line_175               108               109           0.21973         -0.082466          -0.21912          0.076983
Line_176                    Line_176               109               110           0.13912          -0.10698          -0.13826          0.090239
Line_177                    Line_177               110               111          -0.35702          0.019546              0.36         -0.028417
Line_178                    Line_178               110               112           0.69439          -0.29462             -0.68           0.27304
Line_179                    Line_179               114               115          0.012374           0.02917         -0.012372         -0.031714

OTHER ALGEBRAIC VARIABLES:
                                    

q PV 1                             0
q PV 2                      -0.10083
q PV 3                             0
q PV 4                       0.65533
q PV 5                      -0.51042
q PV 6                         1.006
q PV 7                             0
q PV 8                             0
q PV 9                             0
q PV 10                     -0.15602
q PV 11                      0.49138
q PV 12                       0.1065
q PV 13                    -0.038728
q PV 14                      0.30065
q PV 15                            0
q PV 16                            0
q PV 17                            0
q PV 18                      0.24615
q PV 19                      0.41133
q PV 20                    -0.054654
q PV 21                       1.1374
q PV 22                     -0.11132
q PV 23                            0
q PV 24                            0
q PV 25                      0.88118
q PV 26                     -0.38794
q PV 27                            0
q PV 28                       0.8028
q PV 29                     -0.01529
q PV 31                            0
q PV 32                     -0.10334
q PV 33                       0.1284
q PV 34                            0
q PV 35                            0
q PV 36                            0
q PV 37                       1.1439
q PV 38                            0
q PV 39                        0.102
q PV 40                     -0.16763
q PV 41                      0.59082
q PV 42                      -0.1566
q PV 43                            0
q PV 44                     -0.17537
q PV 45                      0.86432
q PV 46                      0.69236
q PV 47                            0
q PV 48                            0
q PV 49                     0.014872
q PV 50                            0
q PV 51                    -0.028417
q PV 52                      0.40304
q PV 53                      0.12657
q PV 54                      0.51294
q Slack 30                  -0.76271
p Slack 30                    5.1261

